/*--------------------------------*- C++ -*----------------------------------*\
  =========                 |
  \\      /  F ield         | OpenFOAM: The Open Source CFD Toolbox
   \\    /   O peration     | Website:  https://openfoam.org
    \\  /    A nd           | Version:  13
     \\/     M anipulation  |
\*---------------------------------------------------------------------------*/
FoamFile
{
    format      ascii;
    class       dictionary;
    object      snappyHexMeshDict;
}
// * * * * * * * * * * * * * * * * * * * * * * * * * * * * * * * * * * * * * //



castellatedMesh true;
snap		true;
addLayers   	false;

geometry
{
    aerofoil
    {
        type triSurfaceMesh;
	file "naca2412_scaled.stl";
    }
}

castellatedMeshControls
{
    maxLocalCells 1000000;
    maxGlobalCells 2000000;
    minRefinementCells 10;
    nCellsBetweenLevels 3;
    resolveFeatureAngle 30;
    

   features
    (
        {
            file "naca2412_scaled.eMesh";
            level 2;
        }
    );

    refinementSurfaces
    {
        aerofoil
        {
            level (3 4);
        }
    }

    locationInMesh (0 0 0.5);   // MUST be inside the fluid region
    allowFreeStandingZoneFaces true;
}

snapControls
{
    nSmoothPatch 5;
    tolerance 2.0;
    nSolveIter 30;
    nRelaxIter 5;
}

addLayersControls
{
}

meshQualityControls
{
    maxNonOrtho 65;
    maxBoundarySkewness 20;
    maxInternalSkewness 4;
    maxConcave 80;
    minFlatness 0.5;
    minVol 1e-13;
    minArea -1;
    minTwist 0.02;
    minDeterminant 0.001;
    minFaceWeight 0.02;
    minVolRatio 0.01;
    minTriangleTwist -1;
    minTetQuality 1e-30;
    nSmoothScale 4;
    errorReduction 0.75;
}

mergeTolerance 1e-6;












// ************************************************************************* //
